<?xml version="1.0" encoding="UTF-8"?>

<!-- generated on 05/11/21 20:29:53 by Eclipse SUMO netedit Version 1.8.0
<configuration xmlns:xsi="http://www.w3.org/2001/XMLSchema-instance" xsi:noNamespaceSchemaLocation="http://sumo.dlr.de/xsd/netconvertConfiguration.xsd">

    <input>
        <sumo-net-file value="D:\sumo_trials\try2.net.xml"/>
    </input>

    <output>
        <output-file value="D:\sumo_trials\try2.net.xml"/>
        <output.street-names value="true"/>
    </output>

    <processing>
        <geometry.min-radius.fix.railways value="false"/>
        <geometry.max-grade.fix value="false"/>
        <offset.disable-normalization value="true"/>
        <lefthand value="false"/>
    </processing>

    <junctions>
        <no-turnarounds value="true"/>
        <junctions.corner-detail value="5"/>
        <junctions.limit-turn-speed value="5.5"/>
        <rectangular-lane-cut value="false"/>
    </junctions>

    <pedestrian>
        <walkingareas value="false"/>
    </pedestrian>

    <report>
        <aggregate-warnings value="5"/>
    </report>

</configuration>
-->

<net version="1.6" junctionCornerDetail="5" limitTurnSpeed="5.50" xmlns:xsi="http://www.w3.org/2001/XMLSchema-instance" xsi:noNamespaceSchemaLocation="http://sumo.dlr.de/xsd/net_file.xsd">

    <location netOffset="0.00,0.00" convBoundary="0.00,0.00,200.00,200.00" origBoundary="-10000000000.00,-10000000000.00,10000000000.00,10000000000.00" projParameter="!"/>

    <edge id=":gneJ1_0" function="internal">
        <lane id=":gneJ1_0_0" index="0" speed="6.51" length="9.03" shape="98.40,107.20 98.05,104.75 97.00,103.00 95.25,101.95 92.80,101.60"/>
    </edge>
    <edge id=":gneJ1_1" function="internal">
        <lane id=":gneJ1_1_0" index="0" speed="26.95" length="14.40" shape="98.40,107.20 98.40,92.80"/>
    </edge>
    <edge id=":gneJ1_2" function="internal">
        <lane id=":gneJ1_2_0" index="0" speed="8.00" length="14.19" shape="98.40,107.20 98.95,103.35 100.60,100.60 103.35,98.95 107.20,98.40"/>
    </edge>
    <edge id=":gneJ1_3" function="internal">
        <lane id=":gneJ1_3_0" index="0" speed="6.51" length="9.03" shape="107.20,101.60 104.75,101.95 103.00,103.00 101.95,104.75 101.60,107.20"/>
    </edge>
    <edge id=":gneJ1_4" function="internal">
        <lane id=":gneJ1_4_0" index="0" speed="40.00" length="14.40" shape="107.20,101.60 92.80,101.60"/>
    </edge>
    <edge id=":gneJ1_5" function="internal">
        <lane id=":gneJ1_5_0" index="0" speed="8.00" length="14.19" shape="107.20,101.60 103.35,101.05 100.60,99.40 98.95,96.65 98.40,92.80"/>
    </edge>
    <edge id=":gneJ1_6" function="internal">
        <lane id=":gneJ1_6_0" index="0" speed="6.51" length="9.03" shape="101.60,92.80 101.95,95.25 103.00,97.00 104.75,98.05 107.20,98.40"/>
    </edge>
    <edge id=":gneJ1_7" function="internal">
        <lane id=":gneJ1_7_0" index="0" speed="40.00" length="14.40" shape="101.60,92.80 101.60,107.20"/>
    </edge>
    <edge id=":gneJ1_8" function="internal">
        <lane id=":gneJ1_8_0" index="0" speed="8.00" length="14.19" shape="101.60,92.80 101.05,96.65 99.40,99.40 96.65,101.05 92.80,101.60"/>
    </edge>
    <edge id=":gneJ1_9" function="internal">
        <lane id=":gneJ1_9_0" index="0" speed="6.51" length="9.03" shape="92.80,98.40 95.25,98.05 97.00,97.00 98.05,95.25 98.40,92.80"/>
    </edge>
    <edge id=":gneJ1_10" function="internal">
        <lane id=":gneJ1_10_0" index="0" speed="40.00" length="14.40" shape="92.80,98.40 107.20,98.40"/>
    </edge>
    <edge id=":gneJ1_11" function="internal">
        <lane id=":gneJ1_11_0" index="0" speed="8.00" length="14.19" shape="92.80,98.40 96.65,98.95 99.40,100.60 101.05,103.35 101.60,107.20"/>
    </edge>

    <edge id="rA-incoming" from="gneJ0" to="gneJ1" priority="-1">
        <lane id="rA-incoming_0" index="0" speed="40.00" length="92.80" shape="0.00,98.40 92.80,98.40"/>
    </edge>
    <edge id="rA-outgoing" from="gneJ1" to="gneJ0" name="road-A" priority="-1" spreadType="center" shape="100.03,101.60 0.00,101.60">
        <lane id="rA-outgoing_0" index="0" speed="40.00" length="92.80" shape="92.80,101.60 0.00,101.60"/>
    </edge>
    <edge id="rB-incoming" from="gneJ4" to="gneJ1" priority="-1">
        <lane id="rB-incoming_0" index="0" speed="40.00" length="92.80" shape="98.40,200.00 98.40,107.20"/>
    </edge>
    <edge id="rB-outgoing" from="gneJ1" to="gneJ4" priority="-1">
        <lane id="rB-outgoing_0" index="0" speed="40.00" length="92.80" shape="101.60,107.20 101.60,200.00"/>
    </edge>
    <edge id="rC-incoming" from="gneJ2" to="gneJ1" priority="-1">
        <lane id="rC-incoming_0" index="0" speed="40.00" length="92.80" shape="200.00,101.60 107.20,101.60"/>
    </edge>
    <edge id="rC-outgoing" from="gneJ1" to="gneJ2" priority="-1">
        <lane id="rC-outgoing_0" index="0" speed="40.00" length="92.80" shape="107.20,98.40 200.00,98.40"/>
    </edge>
    <edge id="rD-incoming" from="gneJ3" to="gneJ1" priority="-1">
        <lane id="rD-incoming_0" index="0" speed="40.00" length="92.80" shape="101.60,0.00 101.60,92.80"/>
    </edge>
    <edge id="rD-outgoing" from="gneJ1" to="gneJ3" priority="-1">
        <lane id="rD-outgoing_0" index="0" speed="13.89" length="92.80" shape="98.40,92.80 98.40,0.00"/>
    </edge>

    <tlLogic id="gneJ1" type="static" programID="0" offset="0">
        <phase duration="1"  state="gggrrrrrrrrr"/>
        <phase duration="3"  state="yyyrrrrrrrrr"/>
        <phase duration="1"  state="rrrgggrrrrrr"/>
        <phase duration="3"  state="rrryyyrrrrrr"/>
        <phase duration="1"  state="rrrrrrgggrrr"/>
        <phase duration="3"  state="rrrrrryyyrrr"/>
        <phase duration="1"  state="rrrrrrrrrggg"/>
        <phase duration="3"  state="rrrrrrrrryyy"/>
    </tlLogic>

    <junction id="gneJ0" type="dead_end" x="0.00" y="100.00" incLanes="rA-outgoing_0" intLanes="" shape="0.00,100.00 0.00,103.20 0.00,100.00"/>
    <junction id="gneJ1" type="traffic_light" x="100.00" y="100.00" incLanes="rB-incoming_0 rC-incoming_0 rD-incoming_0 rA-incoming_0" intLanes=":gneJ1_0_0 :gneJ1_1_0 :gneJ1_2_0 :gneJ1_3_0 :gneJ1_4_0 :gneJ1_5_0 :gneJ1_6_0 :gneJ1_7_0 :gneJ1_8_0 :gneJ1_9_0 :gneJ1_10_0 :gneJ1_11_0" shape="96.80,107.20 103.20,107.20 103.64,104.98 104.20,104.20 104.98,103.64 105.98,103.31 107.20,103.20 107.20,96.80 104.98,96.36 104.20,95.80 103.64,95.02 103.31,94.02 103.20,92.80 96.80,92.80 96.36,95.02 95.80,95.80 95.02,96.36 94.02,96.69 92.80,96.80 92.80,103.20 95.02,103.64 95.80,104.20 96.36,104.98 96.69,105.98">
        <request index="0"  response="000000000000" foes="000100010000" cont="0"/>
        <request index="1"  response="000000000000" foes="111100110000" cont="0"/>
        <request index="2"  response="000011000000" foes="110011110000" cont="0"/>
        <request index="3"  response="000010000000" foes="100010000000" cont="0"/>
        <request index="4"  response="000110000111" foes="100110000111" cont="0"/>
        <request index="5"  response="011110000110" foes="011110000110" cont="0"/>
        <request index="6"  response="000000000000" foes="010000000100" cont="0"/>
        <request index="7"  response="000000000000" foes="110000111100" cont="0"/>
        <request index="8"  response="000000000011" foes="110000110011" cont="0"/>
        <request index="9"  response="000000000010" foes="000000100010" cont="0"/>
        <request index="10" response="000111000110" foes="000111100110" cont="0"/>
        <request index="11" response="000110011110" foes="000110011110" cont="0"/>
    </junction>
    <junction id="gneJ2" type="dead_end" x="200.00" y="100.00" incLanes="rC-outgoing_0" intLanes="" shape="200.00,100.00 200.00,96.80 200.00,100.00"/>
    <junction id="gneJ3" type="dead_end" x="100.00" y="0.00" incLanes="rD-outgoing_0" intLanes="" shape="100.00,0.00 96.80,0.00 100.00,0.00"/>
    <junction id="gneJ4" type="dead_end" x="100.00" y="200.00" incLanes="rB-outgoing_0" intLanes="" shape="100.00,200.00 103.20,200.00 100.00,200.00"/>

    <connection from="rA-incoming" to="rD-outgoing" fromLane="0" toLane="0" via=":gneJ1_9_0" tl="gneJ1" linkIndex="9" dir="r" state="o"/>
    <connection from="rA-incoming" to="rC-outgoing" fromLane="0" toLane="0" via=":gneJ1_10_0" tl="gneJ1" linkIndex="10" dir="s" state="o"/>
    <connection from="rA-incoming" to="rB-outgoing" fromLane="0" toLane="0" via=":gneJ1_11_0" tl="gneJ1" linkIndex="11" dir="l" state="o"/>
    <connection from="rB-incoming" to="rA-outgoing" fromLane="0" toLane="0" via=":gneJ1_0_0" tl="gneJ1" linkIndex="0" dir="r" state="O"/>
    <connection from="rB-incoming" to="rD-outgoing" fromLane="0" toLane="0" via=":gneJ1_1_0" tl="gneJ1" linkIndex="1" dir="s" state="O"/>
    <connection from="rB-incoming" to="rC-outgoing" fromLane="0" toLane="0" via=":gneJ1_2_0" tl="gneJ1" linkIndex="2" dir="l" state="o"/>
    <connection from="rC-incoming" to="rB-outgoing" fromLane="0" toLane="0" via=":gneJ1_3_0" tl="gneJ1" linkIndex="3" dir="r" state="o"/>
    <connection from="rC-incoming" to="rA-outgoing" fromLane="0" toLane="0" via=":gneJ1_4_0" tl="gneJ1" linkIndex="4" dir="s" state="o"/>
    <connection from="rC-incoming" to="rD-outgoing" fromLane="0" toLane="0" via=":gneJ1_5_0" tl="gneJ1" linkIndex="5" dir="l" state="o"/>
    <connection from="rD-incoming" to="rC-outgoing" fromLane="0" toLane="0" via=":gneJ1_6_0" tl="gneJ1" linkIndex="6" dir="r" state="O"/>
    <connection from="rD-incoming" to="rB-outgoing" fromLane="0" toLane="0" via=":gneJ1_7_0" tl="gneJ1" linkIndex="7" dir="s" state="O"/>
    <connection from="rD-incoming" to="rA-outgoing" fromLane="0" toLane="0" via=":gneJ1_8_0" tl="gneJ1" linkIndex="8" dir="l" state="o"/>

    <connection from=":gneJ1_0" to="rA-outgoing" fromLane="0" toLane="0" dir="r" state="M"/>
    <connection from=":gneJ1_1" to="rD-outgoing" fromLane="0" toLane="0" dir="s" state="M"/>
    <connection from=":gneJ1_2" to="rC-outgoing" fromLane="0" toLane="0" dir="l" state="M"/>
    <connection from=":gneJ1_3" to="rB-outgoing" fromLane="0" toLane="0" dir="r" state="M"/>
    <connection from=":gneJ1_4" to="rA-outgoing" fromLane="0" toLane="0" dir="s" state="M"/>
    <connection from=":gneJ1_5" to="rD-outgoing" fromLane="0" toLane="0" dir="l" state="M"/>
    <connection from=":gneJ1_6" to="rC-outgoing" fromLane="0" toLane="0" dir="r" state="M"/>
    <connection from=":gneJ1_7" to="rB-outgoing" fromLane="0" toLane="0" dir="s" state="M"/>
    <connection from=":gneJ1_8" to="rA-outgoing" fromLane="0" toLane="0" dir="l" state="M"/>
    <connection from=":gneJ1_9" to="rD-outgoing" fromLane="0" toLane="0" dir="r" state="M"/>
    <connection from=":gneJ1_10" to="rC-outgoing" fromLane="0" toLane="0" dir="s" state="M"/>
    <connection from=":gneJ1_11" to="rB-outgoing" fromLane="0" toLane="0" dir="l" state="M"/>

</net>
